LTspice 24.1.10 for Windows
Circuit: C:\Users\ilike\LTspice-projects\Draft2.net
Start Time: Fri Nov 14 00:11:09 2025
solver = Normal
Maximum thread count: 16
tnom = 27
temp = 27
method = modified trap
WARNING: Node n004 is floating.

.step 
Total elapsed time: 0.067 seconds.

Files loaded:
C:\Users\ilike\LTspice-projects\Draft2.net
C:\Users\ilike\AppData\Local\LTspice\lib\cmp\standard.mos

