LTspice 24.1.10 for Windows
Circuit: C:\Users\ilike\LTspice-projects\P1_409_Final.net
Start Time: Sun Dec  7 17:29:21 2025
solver = Normal
Maximum thread count: 8
tnom = 27
temp = 27
method = modified trap
Direct Newton iteration for .op point succeeded.
Total elapsed time: 0.053 seconds.

Files loaded:
C:\Users\ilike\LTspice-projects\P1_409_Final.net
C:\Users\ilike\AppData\Local\LTspice\lib\sub\UniversalOpAmp2.lib

