LTspice 24.1.10 for Windows
Circuit: C:\Users\ilike\LTspice-projects\EE412\lab2_2N3904_CE.net
Start Time: Sun Jan 18 18:36:59 2026
solver = Normal
Maximum thread count: 8
tnom = 27
temp = 27
method = modified trap
Direct Newton iteration for .op point succeeded.
Total elapsed time: 0.287 seconds.

Files loaded:
C:\Users\ilike\LTspice-projects\EE412\lab2_2N3904_CE.net
C:\Users\ilike\AppData\Local\LTspice\lib\cmp\standard.bjt

