LTspice 24.1.10 for Windows
Circuit: C:\Users\ilike\LTspice-projects\EE412\Lab2_2N3904_CB_inputstage_analysis.net
Start Time: Sun Jan 18 19:44:37 2026
solver = Normal
Maximum thread count: 8
tnom = 27
temp = 27
method = modified trap
Direct Newton iteration for .op point succeeded.
Total elapsed time: 0.043 seconds.

Files loaded:
C:\Users\ilike\LTspice-projects\EE412\Lab2_2N3904_CB_inputstage_analysis.net
C:\Users\ilike\AppData\Local\LTspice\lib\cmp\standard.bjt

