LTspice 24.1.10 for Windows
Circuit: C:\Users\ilike\LTspice-projects\MOSFET_R2R_Input_Stage_CS_output_tuned_nolevelshift_WyattBuffer.net
Start Time: Tue Dec  2 17:21:31 2025
solver = Normal
Maximum thread count: 8
tnom = 27
temp = 27
method = modified trap
WARNING: Node n001 is floating.
WARNING: Node nc_01 is floating.

Instance "M1": Length shorter than recommended for a level 1 MOSFET.
Instance "M1": Width narrower than recommended for a level 1 MOSFET.
Instance "M2": Length shorter than recommended for a level 1 MOSFET.
Instance "M2": Width narrower than recommended for a level 1 MOSFET.
Instance "M3": Length shorter than recommended for a level 1 MOSFET.
Instance "M3": Width narrower than recommended for a level 1 MOSFET.
Instance "M4": Length shorter than recommended for a level 1 MOSFET.
Instance "M4": Width narrower than recommended for a level 1 MOSFET.
Instance "M12": Length shorter than recommended for a level 1 MOSFET.
Instance "M12": Width narrower than recommended for a level 1 MOSFET.
Instance "M13": Length shorter than recommended for a level 1 MOSFET.
Instance "M13": Width narrower than recommended for a level 1 MOSFET.
Instance "M14": Length shorter than recommended for a level 1 MOSFET.
Instance "M14": Width narrower than recommended for a level 1 MOSFET.
Instance "M15": Length shorter than recommended for a level 1 MOSFET.
Instance "M15": Width narrower than recommended for a level 1 MOSFET.
Instance "M16": Length shorter than recommended for a level 1 MOSFET.
Instance "M17": Length shorter than recommended for a level 1 MOSFET.
Instance "M17": Width narrower than recommended for a level 1 MOSFET.
Instance "M20": Length shorter than recommended for a level 1 MOSFET.
Instance "M20": Width narrower than recommended for a level 1 MOSFET.
Instance "M21": Length shorter than recommended for a level 1 MOSFET.
Instance "M21": Width narrower than recommended for a level 1 MOSFET.
Instance "M7": Length shorter than recommended for a level 1 MOSFET.
Instance "M7": Width narrower than recommended for a level 1 MOSFET.
Instance "M8": Length shorter than recommended for a level 1 MOSFET.
Instance "M8": Width narrower than recommended for a level 1 MOSFET.
Instance "M5": Length shorter than recommended for a level 1 MOSFET.
Instance "M5": Width narrower than recommended for a level 1 MOSFET.
Instance "M6": Length shorter than recommended for a level 1 MOSFET.
Instance "M6": Width narrower than recommended for a level 1 MOSFET.
Instance "M9": Length shorter than recommended for a level 1 MOSFET.
Instance "M9": Width narrower than recommended for a level 1 MOSFET.
Instance "M10": Length shorter than recommended for a level 1 MOSFET.
Instance "M10": Width narrower than recommended for a level 1 MOSFET.
Instance "M11": Length shorter than recommended for a level 1 MOSFET.
Instance "M11": Width narrower than recommended for a level 1 MOSFET.
Instance "M18": Length shorter than recommended for a level 1 MOSFET.
Instance "M18": Width narrower than recommended for a level 1 MOSFET.
Instance "M19": Length shorter than recommended for a level 1 MOSFET.
Instance "M19": Width narrower than recommended for a level 1 MOSFET.
Instance "M22": Length shorter than recommended for a level 1 MOSFET.
Instance "M22": Width narrower than recommended for a level 1 MOSFET.
Direct Newton iteration failed to find .op point.  (Use ".option noopiter" to skip.)
Starting Gmin stepping
Gmin = 10
Gmin = 1.07374
Gmin = 0.115292
Gmin = 0.0123794
Gmin = 0.00132923
Gmin = 0.000142725
Gmin = 1.5325e-05
Gmin = 1.6455e-06
Gmin = 1.76685e-07
Gmin = 1.89714e-08
Gmin = 2.03704e-09
Gmin = 2.18725e-10
Gmin = 2.34854e-11
Gmin = 2.52173e-12
Gmin = 2.70769e-13
Gmin = 0
Gmin stepping succeeded in finding the operating point.

Total elapsed time: 0.117 seconds.

Files loaded:
C:\Users\ilike\LTspice-projects\MOSFET_R2R_Input_Stage_CS_output_tuned_nolevelshift_WyattBuffer.net
C:\Users\ilike\AppData\Local\LTspice\lib\cmp\standard.mos

