LTspice 24.1.10 for Windows
Circuit: C:\Users\ilike\LTspice-projects\MOSFET_R2R_Input_Stage_CS_output_tuned.net
Start Time: Thu Nov 27 16:58:42 2025
solver = Normal
Maximum thread count: 8
tnom = 27
temp = 27
method = modified trap
Instance "M1": Length shorter than recommended for a level 1 MOSFET.
Instance "M1": Width narrower than recommended for a level 1 MOSFET.
Instance "M2": Length shorter than recommended for a level 1 MOSFET.
Instance "M2": Width narrower than recommended for a level 1 MOSFET.
Instance "M3": Length shorter than recommended for a level 1 MOSFET.
Instance "M3": Width narrower than recommended for a level 1 MOSFET.
Instance "M4": Length shorter than recommended for a level 1 MOSFET.
Instance "M4": Width narrower than recommended for a level 1 MOSFET.
Instance "M12": Length shorter than recommended for a level 1 MOSFET.
Instance "M12": Width narrower than recommended for a level 1 MOSFET.
Instance "M13": Length shorter than recommended for a level 1 MOSFET.
Instance "M13": Width narrower than recommended for a level 1 MOSFET.
Instance "M14": Length shorter than recommended for a level 1 MOSFET.
Instance "M14": Width narrower than recommended for a level 1 MOSFET.
Instance "M15": Length shorter than recommended for a level 1 MOSFET.
Instance "M15": Width narrower than recommended for a level 1 MOSFET.
Instance "M16": Length shorter than recommended for a level 1 MOSFET.
Instance "M17": Length shorter than recommended for a level 1 MOSFET.
Instance "M17": Width narrower than recommended for a level 1 MOSFET.
Instance "M20": Length shorter than recommended for a level 1 MOSFET.
Instance "M20": Width narrower than recommended for a level 1 MOSFET.
Instance "M7": Length shorter than recommended for a level 1 MOSFET.
Instance "M7": Width narrower than recommended for a level 1 MOSFET.
Instance "M8": Length shorter than recommended for a level 1 MOSFET.
Instance "M8": Width narrower than recommended for a level 1 MOSFET.
Instance "M5": Length shorter than recommended for a level 1 MOSFET.
Instance "M5": Width narrower than recommended for a level 1 MOSFET.
Instance "M6": Length shorter than recommended for a level 1 MOSFET.
Instance "M6": Width narrower than recommended for a level 1 MOSFET.
Instance "M9": Length shorter than recommended for a level 1 MOSFET.
Instance "M9": Width narrower than recommended for a level 1 MOSFET.
Instance "M10": Length shorter than recommended for a level 1 MOSFET.
Instance "M10": Width narrower than recommended for a level 1 MOSFET.
Instance "M11": Length shorter than recommended for a level 1 MOSFET.
Instance "M11": Width narrower than recommended for a level 1 MOSFET.
Instance "M18": Length shorter than recommended for a level 1 MOSFET.
Instance "M18": Width narrower than recommended for a level 1 MOSFET.
Instance "M19": Length shorter than recommended for a level 1 MOSFET.
Instance "M19": Width narrower than recommended for a level 1 MOSFET.
Direct Newton iteration for .op point succeeded.
Total elapsed time: 0.155 seconds.

Files loaded:
C:\Users\ilike\LTspice-projects\MOSFET_R2R_Input_Stage_CS_output_tuned.net
C:\Users\ilike\AppData\Local\LTspice\lib\cmp\standard.mos

