LTspice 24.1.10 for Windows
Circuit: C:\Users\ilike\LTspice-projects\MOSFET_Op_amp_Isrc_testing.net
Start Time: Wed Nov 19 17:45:18 2025
solver = Normal
Maximum thread count: 8
tnom = 27
temp = 27
method = modified trap
Instance "M1": Length shorter than recommended for a level 1 MOSFET.
Instance "M1": Width narrower than recommended for a level 1 MOSFET.
Instance "M2": Length shorter than recommended for a level 1 MOSFET.
Instance "M2": Width narrower than recommended for a level 1 MOSFET.
Instance "M3": Length shorter than recommended for a level 1 MOSFET.
Instance "M3": Width narrower than recommended for a level 1 MOSFET.
Instance "M4": Length shorter than recommended for a level 1 MOSFET.
Instance "M4": Width narrower than recommended for a level 1 MOSFET.
Instance "M6": Length shorter than recommended for a level 1 MOSFET.
Instance "M6": Width narrower than recommended for a level 1 MOSFET.
.step 
Total elapsed time: 0.101 seconds.

Files loaded:
C:\Users\ilike\LTspice-projects\MOSFET_Op_amp_Isrc_testing.net
C:\Users\ilike\AppData\Local\LTspice\lib\cmp\standard.mos

