LTspice 24.1.10 for Windows
Circuit: C:\Users\ilike\LTspice-projects\NMOS_diff_pair.net
Start Time: Tue Dec  2 17:21:17 2025
solver = Normal
Maximum thread count: 8
tnom = 27
temp = 27
method = modified trap
WARNING: Node n002 is floating.

Instance "M1": Length shorter than recommended for a level 1 MOSFET.
Instance "M1": Width narrower than recommended for a level 1 MOSFET.
Instance "M2": Length shorter than recommended for a level 1 MOSFET.
Instance "M2": Width narrower than recommended for a level 1 MOSFET.
Instance "M3": Length shorter than recommended for a level 1 MOSFET.
Instance "M3": Width narrower than recommended for a level 1 MOSFET.
Instance "M4": Length shorter than recommended for a level 1 MOSFET.
Instance "M4": Width narrower than recommended for a level 1 MOSFET.
Instance "M5": Length shorter than recommended for a level 1 MOSFET.
Instance "M5": Width narrower than recommended for a level 1 MOSFET.
Direct Newton iteration for .op point succeeded.
Total elapsed time: 0.086 seconds.

Files loaded:
C:\Users\ilike\LTspice-projects\NMOS_diff_pair.net
C:\Users\ilike\AppData\Local\LTspice\lib\cmp\standard.mos

